! TPSS Def2-TZVP RIJCOSX
! OptTS NumFreq TightSCF SlowConv

%pal nprocs 2 end

%scf maxiter 125 end

%geom
 Calc_HESS true
 NumHess True
 end

*xyz 0 1
 C     0.175074     0.010685    -0.017067
 C     0.022959     0.006743     1.465169
 O     1.293620    -0.215936    -0.637319
 O    -0.736102     0.223186    -0.876957
 H     0.432116    -0.014438    -1.488391
 H    -0.988558     0.295272     1.748796
 H     0.243334    -0.996806     1.843215
 H     0.752285     0.691295     1.907549
*
