#orcacmd /home/filipe/compchem/orca/run-Orca-4.0.1
#irchess acoh-migration-ts-optts.hess
#ircguess acoh-migration-ts-optts.gbw
#ircmode 6
#ircpts 50
#ircdir +1
#ircalg 1
#ircalpha 0.05
! TPSS Def2-TZVP RIJCOSX VeryTightSCF SlowConv

%pal nprocs 4 end

%scf maxiter 125 end

*xyz 0 1
  C   0.20887806424198      0.01340678208233     -0.01384039691738
  C   0.03942263200290      0.01474789075782      1.46836134656527
  O   1.33075559998342      0.13998907059988     -0.62535343394071
  O   -0.74501723228233     -0.13781669544854     -0.85999012908356
  H   0.38452299667859     -0.01458284470429     -1.52578413155929
  H   -0.89462775280108      0.51096711546614      1.73910665003906
  H   -0.01880023357738     -1.02420070338504      1.81132511432088
  H   0.88959392575391      0.49749038463172      1.95116998057572
*
