#needfile r01-endo-3r-ts-copt.xyz
#needfile r01-endo-3r-ts-copt.gbw
#needfile r01-endo-3r-ts-copt.hess
! X3LYP Def2-SVP RIJCOSX VeryTightSCF SlowConv Grid5 FinalGrid6
! OptTS NumFreq xyzfile  MORead

%moinp "r01-endo-3r-ts-copt.gbw"

%pal nprocs 4 end

%geom
 inHess Read
 InHessName "r01-endo-3r-ts-copt.hess"
 NumHess true
end

%output
  print[p_mos] 1
  print[p_Basis] 2
 end

*xyzfile 1 1 r01-endo-3r-ts-copt.xyz

